BEGIN NEW DATA CASE
C ------------------------------------------------------------------------------
C Generated by ATPDraw enero, 27, 2023
C from project C:\Users\aherrada\OneDrive - Universidad del Norte\Uninorte\Detec
C ATPDraw developed by H. K. Høidalen at NTNU - NORWAY 1999-2020
C ------------------------------------------------------------------------------
C  dT  >< Tmax >< Xopt >< Copt ><Epsiln>
   1.E-6      .1                        
     500       1       1       1       1       0       0       1       0
C        1         2         3         4         5         6         7         8
C 345678901234567890123456789012345678901234567890123456789012345678901234567890
/BRANCH
C < n1 >< n2 ><ref1><ref2>< R  >< L  >< C  >
C < n1 >< n2 ><ref1><ref2>< R  >< A  >< B  ><Leng><><>0
  X0002A                      1.  .001                                         0
  X0002B                      1.  .001                                         0
  X0002C                      1.  .001                                         0
/SWITCH
C < n 1>< n 2>< Tclose ><Top/Tde ><   Ie   ><Vf/CLOP ><  type  >
  X0001AX0002A                                        MEASURING                1
  X0001BX0002B                                        MEASURING                1
  X0001CX0002C                                        MEASURING                1
/SOURCE
C < n 1><>< Ampl.  >< Freq.  ><Phase/T0><   A1   ><   T1   >< TSTART >< TSTOP  >
14X0001A  8164.96581       60.123.123457                           -1.      100.
14X0001B  8164.96581       60.3.12345679                           -1.      100.
14X0001C  8164.96581       60.-116.87654                           -1.      100.
/OUTPUT
  X0002AX0002BX0002C
BLANK BRANCH
BLANK SWITCH
BLANK SOURCE
BLANK OUTPUT
BLANK PLOT
BEGIN NEW DATA CASE
BLANK
