BEGIN NEW DATA CASE
C ------------------------------------------------------------------------------
C Generated by ATPDraw enero, 28, 2023
C from project C:\Users\aherrada\OneDrive - Universidad del Norte\Uninorte\Detec
C ATPDraw developed by H. K. Høidalen at NTNU - NORWAY 1999-2020
C ------------------------------------------------------------------------------
POWER FREQUENCY                      60.
C  dT  >< Tmax >< Xopt >< Copt ><Epsiln>
3.255E-5      .3     60.     60.        
     500       1       1       1       1       0       0       1       0
/TACS
TACS HYBRID
C Referencia Q desde terciario
98XX0031  =      0.0
98XX0032  =       1.
27XX0027
27XX0026
98XX0034  =       1.
C Referencia Q desde terciario
98XX0041  =      0.0
98XX0042  =       1.
27XX0036
27XX0035
98XX0044  =       1.
C Referencia Q desde terciario
98XX0051  =      0.0
98XX0052  =       1.
27XX0047
27XX0046
98XX0054  =       1.
C Referencia Q desde terciario
98XX0063  =      0.0
98XX0064  =       1.
27XX0058
27XX0057
98XX0066  =       1.
/MODELS
MODELS
INPUT
  MM0001 {v(X0084A)}
  MM0002 {v(X0084B)}
  MM0003 {v(X0084C)}
  MM0004 {i(X0084A)}
  MM0005 {i(X0084B)}
  MM0006 {i(X0084C)}
  MM0007 {v(R1A)}
  MM0008 {v(R1B)}
  MM0009 {v(R1C)}
  MM0010 {v(X0086A)}
  MM0011 {v(X0086B)}
  MM0012 {v(X0086C)}
  MM0013 {i(X0086A)}
  MM0014 {i(X0086B)}
  MM0015 {i(X0086C)}
  MM0016 {v(R2A)}
  MM0017 {v(R2B)}
  MM0018 {v(R2C)}
  MM0019 {v(X0088A)}
  MM0020 {v(X0088B)}
  MM0021 {v(X0088C)}
  MM0022 {i(X0088A)}
  MM0023 {i(X0088B)}
  MM0024 {i(X0088C)}
  MM0025 {v(R4A)}
  MM0026 {v(R4B)}
  MM0027 {v(R4C)}
  MM0028 {v(X0090A)}
  MM0029 {v(X0090B)}
  MM0030 {v(X0090C)}
  MM0031 {i(X0090A)}
  MM0032 {i(X0090B)}
  MM0033 {i(X0090C)}
  MM0034 {v(R5A)}
  MM0035 {v(R5B)}
  MM0036 {v(R5C)}
  MM0037 {v(X0092A)}
  MM0038 {v(X0092B)}
  MM0039 {v(X0092C)}
  MM0040 {i(X0092A)}
  MM0041 {i(X0092B)}
  MM0042 {i(X0092C)}
  MM0043 {v(R8A)}
  MM0044 {v(R8B)}
  MM0045 {v(R8C)}
  MM0046 {v(X0094A)}
  MM0047 {v(X0094B)}
  MM0048 {v(X0094C)}
  MM0049 {i(X0094A)}
  MM0050 {i(X0094B)}
  MM0051 {i(X0094C)}
  MM0052 {v(R9A)}
  MM0053 {v(R9B)}
  MM0054 {v(R9C)}
  MM0055 {v(X0096A)}
  MM0056 {v(X0096B)}
  MM0057 {v(X0096C)}
  MM0058 {i(X0096A)}
  MM0059 {i(X0096B)}
  MM0060 {i(X0096C)}
  MM0061 {v(R10A)}
  MM0062 {v(R10B)}
  MM0063 {v(R10C)}
  MM0064 {v(X0098A)}
  MM0065 {v(X0098B)}
  MM0066 {v(X0098C)}
  MM0067 {i(X0098A)}
  MM0068 {i(X0098B)}
  MM0069 {i(X0098C)}
  MM0070 {v(R22A)}
  MM0071 {v(R22B)}
  MM0072 {v(R22C)}
  MM0073 {v(X0100A)}
  MM0074 {v(X0100B)}
  MM0075 {v(X0100C)}
  MM0076 {i(X0100A)}
  MM0077 {i(X0100B)}
  MM0078 {i(X0100C)}
  MM0079 {v(R11A)}
  MM0080 {v(R11B)}
  MM0081 {v(R11C)}
  MM0082 {v(X0102A)}
  MM0083 {v(X0102B)}
  MM0084 {v(X0102C)}
  MM0085 {i(X0102A)}
  MM0086 {i(X0102B)}
  MM0087 {i(X0102C)}
  MM0088 {v(R12A)}
  MM0089 {v(R12B)}
  MM0090 {v(R12C)}
  MM0091 {v(X0104A)}
  MM0092 {v(X0104B)}
  MM0093 {v(X0104C)}
  MM0094 {i(X0104A)}
  MM0095 {i(X0104B)}
  MM0096 {i(X0104C)}
  MM0097 {v(R13A)}
  MM0098 {v(R13B)}
  MM0099 {v(R13C)}
  MM0100 {v(X0106A)}
  MM0101 {v(X0106B)}
  MM0102 {v(X0106C)}
  MM0103 {i(X0106A)}
  MM0104 {i(X0106B)}
  MM0105 {i(X0106C)}
  MM0106 {v(R14A)}
  MM0107 {v(R14B)}
  MM0108 {v(R14C)}
  MM0109 {v(X0108A)}
  MM0110 {v(X0108B)}
  MM0111 {v(X0108C)}
  MM0112 {i(X0108A)}
  MM0113 {i(X0108B)}
  MM0114 {i(X0108C)}
  MM0115 {v(R21A)}
  MM0116 {v(R21B)}
  MM0117 {v(R21C)}
  MM0118 {v(X0110A)}
  MM0119 {v(X0110B)}
  MM0120 {v(X0110C)}
  MM0121 {i(X0110A)}
  MM0122 {i(X0110B)}
  MM0123 {i(X0110C)}
  MM0124 {v(R15A)}
  MM0125 {v(R15B)}
  MM0126 {v(R15C)}
  MM0127 {v(X0112A)}
  MM0128 {v(X0112B)}
  MM0129 {v(X0112C)}
  MM0130 {i(X0112A)}
  MM0131 {i(X0112B)}
  MM0132 {i(X0112C)}
  MM0133 {v(R16A)}
  MM0134 {v(R16B)}
  MM0135 {v(R16C)}
  MM0136 {v(X0114A)}
  MM0137 {v(X0114B)}
  MM0138 {v(X0114C)}
  MM0139 {i(X0114A)}
  MM0140 {i(X0114B)}
  MM0141 {i(X0114C)}
  MM0142 {v(R17A)}
  MM0143 {v(R17B)}
  MM0144 {v(R17C)}
  MM0145 {v(X0116A)}
  MM0146 {v(X0116B)}
  MM0147 {v(X0116C)}
  MM0148 {i(X0116A)}
  MM0149 {i(X0116B)}
  MM0150 {i(X0116C)}
  MM0151 {v(R18A)}
  MM0152 {v(R18B)}
  MM0153 {v(R18C)}
  MM0154 {v(X0118A)}
  MM0155 {v(X0118B)}
  MM0156 {v(X0118C)}
  MM0157 {i(X0118A)}
  MM0158 {i(X0118B)}
  MM0159 {i(X0118C)}
  MM0160 {v(R23A)}
  MM0161 {v(R23B)}
  MM0162 {v(R23C)}
  MM0163 {v(X0120A)}
  MM0164 {v(X0120B)}
  MM0165 {v(X0120C)}
  MM0166 {i(X0120A)}
  MM0167 {i(X0120B)}
  MM0168 {i(X0120C)}
  MM0169 {v(R24A)}
  MM0170 {v(R24B)}
  MM0171 {v(R24C)}
  MM0172 {v(X0122A)}
  MM0173 {v(X0122B)}
  MM0174 {v(X0122C)}
  MM0175 {i(X0122A)}
  MM0176 {i(X0122B)}
  MM0177 {i(X0122C)}
  MM0178 {v(R25A)}
  MM0179 {v(R25B)}
  MM0180 {v(R25C)}
  MM0181 {v(X0124A)}
  MM0182 {v(X0124B)}
  MM0183 {v(X0124C)}
  MM0184 {i(X0124A)}
  MM0185 {i(X0124B)}
  MM0186 {i(X0124C)}
  MM0187 {v(R7A)}
  MM0188 {v(R7B)}
  MM0189 {v(R7C)}
  MM0190 {v(X0126A)}
  MM0191 {v(X0126B)}
  MM0192 {v(X0126C)}
  MM0193 {i(X0126A)}
  MM0194 {i(X0126B)}
  MM0195 {i(X0126C)}
  MM0196 {v(R6A)}
  MM0197 {v(R6B)}
  MM0198 {v(R6C)}
  MM0199 {v(X0128A)}
  MM0200 {v(X0128B)}
  MM0201 {v(X0128C)}
  MM0202 {i(X0128A)}
  MM0203 {i(X0128B)}
  MM0204 {i(X0128C)}
  MM0205 {v(R20A)}
  MM0206 {v(R20B)}
  MM0207 {v(R20C)}
  MM0208 {v(X0030A)}
  MM0209 {v(X0030B)}
  MM0210 {v(X0030C)}
  MM0211 {tacs(XX0031)}
  MM0215 {tacs(XX0032)}
  MM0216 {tacs(XX0034)}
  MM0217 {i(X0028A)}
  MM0218 {i(X0028B)}
  MM0219 {i(X0028C)}
  MM0223 {tacs(XX0027)}
  MM0224 {tacs(XX0026)}
  MM0231 {v(X0040A)}
  MM0232 {v(X0040B)}
  MM0233 {v(X0040C)}
  MM0234 {i(X0040A)}
  MM0235 {i(X0040B)}
  MM0236 {i(X0040C)}
  MM0237 {tacs(XX0041)}
  MM0241 {tacs(XX0042)}
  MM0242 {tacs(XX0044)}
  MM0243 {i(X0037A)}
  MM0244 {i(X0037B)}
  MM0245 {i(X0037C)}
  MM0249 {tacs(XX0036)}
  MM0250 {tacs(XX0035)}
  MM0257 {v(X0050A)}
  MM0258 {v(X0050B)}
  MM0259 {v(X0050C)}
  MM0260 {i(X0050A)}
  MM0261 {i(X0050B)}
  MM0262 {i(X0050C)}
  MM0263 {tacs(XX0051)}
  MM0267 {tacs(XX0052)}
  MM0268 {tacs(XX0054)}
  MM0269 {i(X0048A)}
  MM0270 {i(X0048B)}
  MM0271 {i(X0048C)}
  MM0275 {tacs(XX0047)}
  MM0276 {tacs(XX0046)}
  MM0283 {v(X0062A)}
  MM0284 {v(X0062B)}
  MM0285 {v(X0062C)}
  MM0286 {i(X0062A)}
  MM0287 {i(X0062B)}
  MM0288 {i(X0062C)}
  MM0289 {tacs(XX0063)}
  MM0293 {tacs(XX0064)}
  MM0294 {tacs(XX0066)}
  MM0295 {i(X0059A)}
  MM0296 {i(X0059B)}
  MM0297 {i(X0059C)}
  MM0301 {tacs(XX0058)}
  MM0302 {tacs(XX0057)}
  MM0309 {i(R1A)}
  MM0310 {i(R1B)}
  MM0311 {i(R1C)}
  MM0312 {v(X0069A)}
  MM0313 {v(X0069B)}
  MM0314 {v(X0069C)}
  MM0315 {i(X0069A)}
  MM0316 {i(X0069B)}
  MM0317 {i(X0069C)}
  MM0318 {v(X0174A)}
  MM0319 {v(X0174B)}
  MM0320 {v(X0174C)}
  MM0321 {i(X0174A)}
  MM0322 {i(X0174B)}
  MM0323 {i(X0174C)}
  MM0324 {v(R19A)}
  MM0325 {v(R19B)}
  MM0326 {v(R19C)}
  MM0327 {v(X0176A)}
  MM0328 {v(X0176B)}
  MM0329 {v(X0176C)}
  MM0330 {i(X0176A)}
  MM0331 {i(X0176B)}
  MM0332 {i(X0176C)}
  MM0333 {v(R3A)}
  MM0334 {v(R3B)}
  MM0335 {v(R3C)}
  MM0336 {v(N124A)}
  MM0337 {v(N124B)}
  MM0338 {v(N124C)}
  MM0339 {i(N124A)}
  MM0340 {i(N124B)}
  MM0341 {i(N124C)}
OUTPUT
  X0033A
  X0033B
  X0033C
  XX0026
  XX0027
  XX0135
  X0138A
  X0138B
  X0136A
  X0136B
  X0137A
  X0137B
  X0139A
  X0139B
  X0134A
  X0134B
  X0029A
  X0029B
  X0029C
  PDER3
  QDER3
  X0043A
  X0043B
  X0043C
  XX0035
  XX0036
  XX0146
  X0149A
  X0149B
  X0147A
  X0147B
  X0148A
  X0148B
  X0150A
  X0150B
  X0145A
  X0145B
  X0038A
  X0038B
  X0038C
  PDER2
  QDER2
  X0053A
  X0053B
  X0053C
  XX0046
  XX0047
  XX0157
  X0160A
  X0160B
  X0158A
  X0158B
  X0159A
  X0159B
  X0161A
  X0161B
  X0156A
  X0156B
  X0049A
  X0049B
  X0049C
  PDER4
  QDER4
  X0065A
  X0065B
  X0065C
  XX0057
  XX0058
  XX0168
  X0171A
  X0171B
  X0169A
  X0169B
  X0170A
  X0170B
  X0172A
  X0172B
  X0167A
  X0167B
  X0060A
  X0060B
  X0060C
  PSUB
  QSUB
  PSYNC
  QSYN
  XX0014
  XX0076
MODEL WRITEPROBEI
comment--------------------------------------------------------------
Calculates the phasor of input V and I with FFT Radix2-8 algorithm.
The phasor is written to the LIS-file at the specified TIME.
SampleFreq should be a whole multiple of the 8* power frequency.
-----------------------------------------------------------endcomment
DATA  
  N {DFLT:3}           --number of phases
  FREQ {DFLT:50}       --power frequency
  TIME {DFLT:0}        --sample time
  SampleFreq {dflt:400}--sample freq
  IDX
INPUT 
  V[1..N], I[1..N]     --input signal to be transformed
VAR    
  P[1..N], Q[1..N], 
Imagn[1..N],Iangl[1..N],reV[1..N],imV[1..N],reI[1..N],imI[1..N],OMEGA,
  k,alpha,x1,x3,x5,x7,xre,xim,delta_T[0..7],written

HISTORY
  V[1..N] {DFLT:0}
  I[1..N] {DFLT:0}
timestep min: recip(SampleFreq)
DELAY CELLS (V[1..N]) : recip(FREQ*timestep)+2
DELAY CELLS (I[1..N]) : recip(FREQ*timestep)+2

INIT 
  OMEGA:= 2*PI*FREQ
  written:=0
  reV[1..N] :=0
  imV[1..N] :=0
  reI[1..N] :=0
  imI[1..N] :=0
  alpha:=1/sqrt(2)
  for k:= 0 to 7 do
    delta_T[k] := k*recip(FREQ*8)
  endfor
ENDINIT
EXEC
  if written=0 then
    if (FREQ>0) and (t>=TIME-recip(FREQ)) then
      for k:=1 to N do
        x1 := delay(V[k],delta_T[0],1) - delay(V[k],delta_T[4],1)
        x3 := delay(V[k],delta_T[2],1) - delay(V[k],delta_T[6],1)
        x5 := delay(V[k],delta_T[1],1) - delay(V[k],delta_T[5],1)
        x7 := delay(V[k],delta_T[3],1) - delay(V[k],delta_T[7],1)
        xRe := x1 + (x5 - x7)*alpha
        xIm := x3 + (x5 + x7)*alpha
        ReV[k] := (xRe*cos(OMEGA*T)+xIm*sin(OMEGA*T))/4
        ImV[k] := (xIm*cos(OMEGA*T)-xRe*sin(OMEGA*T))/4
        x1 := delay(I[k],delta_T[0],1) - delay(I[k],delta_T[4],1)
        x3 := delay(I[k],delta_T[2],1) - delay(I[k],delta_T[6],1)
        x5 := delay(I[k],delta_T[1],1) - delay(I[k],delta_T[5],1)
        x7 := delay(I[k],delta_T[3],1) - delay(I[k],delta_T[7],1)
        xRe := x1 + (x5 - x7)*alpha
        xIm := x3 + (x5 + x7)*alpha
        ReI[k] := (xRe*cos(OMEGA*T)+xIm*sin(OMEGA*T))/4
        ImI[k] := (xIm*cos(OMEGA*T)-xRe*sin(OMEGA*T))/4
      endfor
    endif 
    if t>=TIME then
      if FREQ>0 then
        for k:=1 to N do
          P[k]:=(reV[k]*reI[k]+imV[k]*imI[k])/2
          Q[k]:=(imV[k]*reI[k]-reV[k]*imI[k])/2
          Imagn[k]:=sqrt(reI[k]**2+imI[k]**2)
          if (imI[k]=0) and (reI[k]=0) then
            Iangl[k]:=0
          else
            Iangl[k]:=atan2(imI[k],reI[k])*180/PI
          endif
        endfor 
      else
        for k:=1 to N do
          P[k]:=I[k]*V[k]/2
          Q[k]:=0
          Imagn[k]:=I[k]
          Iangl[k]:=0
        endfor
      endif
      write('BEGIN WRITE @WRITEPROBEI',trunc(Idx))    --Do not modify this line, replaced by ATPDraw
      for k:=1 to N do
        write(Imagn[k],' ', Iangl[k],' ', P[k],' ' ,Q[k],' ' , TIME)            
            --Add multiple columns or multiple lines 
      endfor
      write('END WRITE @WRITEPROBEI',trunc(Idx))      --Do not modify this line, replaced by ATPDraw
      written:=1
    endif
  endif
ENDEXEC
ENDMODEL
MODEL WRITEPROBEV
comment---------------------------------------------------------
Calculates the phasor of input V with FFT Radix2-8 algorithm.
The phasor is written to the LIS-file at the specified TIME.
SampleFreq should be a whole multiple of the 8* power frequency.
-------------------------------------------------------endcomment
DATA  
  N {DFLT:3}           --number of phases
  FREQ {DFLT:50}       --power frequency
  TIME {DFLT:0}        --sample time
  SampleFreq {dflt:400}--sample freq
  IDX
INPUT 
  V[1..N]     --input signal to be transformed
VAR    
  Vmagn[1..N],Vangl[1..N],reV[1..N],imV[1..N],OMEGA,
  k,alpha,x1,x3,x5,x7,xre,xim,delta_T[0..7],written

HISTORY
  V[1..N] {DFLT:0}
timestep min: recip(SampleFreq)
DELAY CELLS (V[1..N]) : recip(FREQ*timestep)+2

INIT 
  OMEGA:= 2*PI*FREQ
  written:=0
  reV[1..N] :=0
  imV[1..N] :=0
  alpha:=1/sqrt(2)
  for k:= 0 to 7 do
    delta_T[k] := k*recip(FREQ*8)
  endfor
ENDINIT
EXEC
  if written=0 then
    if (FREQ>0) and (t>=TIME-recip(FREQ)) then
      for k:=1 to N do
        x1 := delay(V[k],delta_T[0],1) - delay(V[k],delta_T[4],1)
        x3 := delay(V[k],delta_T[2],1) - delay(V[k],delta_T[6],1)
        x5 := delay(V[k],delta_T[1],1) - delay(V[k],delta_T[5],1)
        x7 := delay(V[k],delta_T[3],1) - delay(V[k],delta_T[7],1)
        xRe := x1 + (x5 - x7)*alpha
        xIm := x3 + (x5 + x7)*alpha
        ReV[k] := (xRe*cos(OMEGA*T)+xIm*sin(OMEGA*T))/4
        ImV[k] := (xIm*cos(OMEGA*T)-xRe*sin(OMEGA*T))/4
      endfor
    endif 
    if t>=TIME then
      if FREQ>0 then
        for k:=1 to N do
          Vmagn[k]:=sqrt(reV[k]**2+imV[k]**2)
          if (imV[k]=0) and (reV[k]=0) then
            Vangl[k]:=0
          else
            Vangl[k]:=atan2(imV[k],reV[k])*180/PI
          endif
        endfor 
      else
        for k:=1 to N do
          Vmagn[k]:=V[k]
          Vangl[k]:=0
        endfor
      endif
      write('BEGIN WRITE @WRITEPROBEV',trunc(Idx))    --Do not modify this line, replaced by ATPDraw
      for k:=1 to N do
        write(Vmagn[k],' ', Vangl[k],' ', TIME)                        --Add multiple columns or multiple lines 
      endfor
      write('END WRITE @WRITEPROBEV',trunc(Idx))      --Do not modify this line, replaced by ATPDraw
      written:=1
    endif
  endif
ENDEXEC
ENDMODEL
MODEL ABC2RMS
comment------------------------------------------------------------------
Calculates the true rms value of a 3-phase signal based on integration.
SampleFreq frequency should be whole multiple of power frequency.
---------------------------------------------------------------endcomment
DATA   
  freq          -- base frequency
  xrms_ini {dflt:-1} -- initial rms value
  scale {dflt:1} --multiply output by this number 
  SampleFreq     -- sample frequency in Hz
INPUT  
  x[1..3]        -- monitored signal
OUTPUT 
  xrms[1..3]     -- rms value of monitored signal
VAR    
  xrms[1..3]     
  x2[1..3]       -- internal, x*x
  ix2[1..3]      -- internal, integral of x2
  period         -- 1/freq
  n
TIMESTEP min:recip(SampleFreq) --this restricts local timestep to avoid overflow
DELAY CELLS(ix2[1..3]): recip(freq*timestep) +2
INIT
  period       := recip(freq)
  histdef(ix2[1..3]) := 0
  integral(x2[1..3]) := 0
  IF xrms_ini <0 THEN xrms[1..3]:=0 ELSE xrms[1..3]:=xrms_ini ENDIF
ENDINIT
EXEC
  FOR n:=1 TO 3 DO
    x2[n]  := x[n]*x[n]
    ix2[n] := integral(x2[n])
    IF t>period THEN
      xrms[n] := sqrt((ix2[n] - delay(ix2[n], period))*freq)*scale
    ENDIF
  ENDFOR
ENDEXEC
ENDMODEL
MODEL PF
--Grid code requirements regarding 
DATA ILIM0 {DFLT:1.2}
INPUT Qref,VIN[1..3]        --QREF DEL CONTROL TERCIARIO, VIN RMS
      Pref, Pava            --PREF DEL CTRL TERCIARIO y P disponible en primary source
OUTPUT IQMIN, PMAX    --LA MINIMA Q PARA CUMPLIR PF Y LA MAXIMA P HABILITADA

VAR IQMIN, IDMAX, V, ILIM, PMAX --IDMAX es la maxima permitida minimo de varias

INIT
  IQMIN:=0
  IDMAX:=1
  V:=1
  ILIM:=1.2
  PMAX:=0
ENDINIT

EXEC
V:=MIN(VIN[1],VIN[2],VIN[3])

ILIM:=ILIM0

--COMO SE TRABAJA EN POR UNIDAD, IQ ES IGUAL A Qref
IF V<=0.5 THEN
    IF ABS(Qref)<ILIM*0.9  THEN   --si ref de Q menor a 0.9 Imax
        IQMIN:=0.95*ILIM        --POSITIVO PARA GENERAR REACTIVOS
    ELSE
        IQMIN:=ABS(Qref) --GARANTIZA GENERACION, PUES REFERENCIA PUEDE SER NEGATIVA
    ENDIF
    
ELSIF AND(V>0.5, V<=0.85) THEN
    IF ABS(Qref)<(-(18/7)*V + 153/70)*ILIM THEN
        IQMIN:=(-(18/7)*V + 153/70)*ILIM    
    ELSE
        IQMIN:=ABS(Qref)
    ENDIF
    
ELSIF AND(V>0.85, V<=0.9)  THEN
    IF Qref<0   THEN
        IQMIN:=0
    ELSE
        IQMIN:=Qref
    ENDIF
    
ELSE
    IQMIN:=Qref        --si la tensión es mayor a 0.9, se genera/consume lo que se pida
ENDIF


--segundo if para id, en este caso se encuentra el valor máximo de id
--que se permite
IF V<=0.85 THEN
    IDMAX:=SQRT(abs(ILIM)**2 - abs(IQMIN)**2)
    
ELSE
    IDMAX:=1
ENDIF

PMAX:=MIN(IDMAX,Pava,Pref)


ENDEXEC
ENDMODEL
MODEL PLLDQ
COMMENT =============================================================

    EEUG Course 2005:
    Estimation of frequency and phase by means of a PLL which
    operates using dq-components of measured voltages
    Reference: C. Zan; C. Fitzer; V. K. Ramachandaramurthy; 
    A. Arulampalam; M. Barnes; N. Jenkins: 
    Software Phased-Locked Loop applied to Dynamic Voltage 
    Restorer (DVR), Proc. IEEE-PES Winter Meeting 2001, 
    pp. 1033-1038.

    14-Aug-2005, Prof. M. Kizilcay
========================================================== ENDCOMMENT
INPUT  u[1..3]              -- phase voltages
OUTPUT FREQ
CONST
  twopi  {VAL:6.283185307}
DATA
  theta0 {DFLT:0.0}          -- phase betw. d-axis and alpha-axis
  f0     {DFLT:50.0}
  Gain   {DFLT:22.85}
VAR
  ualpha, ubeta, u0, ualfaN, ubetaN,
  u_dN, u_qN, u_d, u_q, uampl
  theta, wcon 
  omega, omega0,freq 
  ucomp, temp
HISTORY
  wcon {DFLT:0}
  u_qN {DFLT:0}
  omega {DFLT:2*PI*f0}
  INTEGRAL(omega) {DFLT:theta0*PI/180}
  freq {DFLT:50}
  theta {DFLT:theta0*PI/180}
INIT
  omega0 := 2*PI*f0
  theta := theta0*PI/180.0
ENDINIT
EXEC
  -- From three-phase to alfa-beta-zero
  ualpha := SQRT(2/3)*(u[1] - 0.5*(u[2]+u[3]))
  ubeta := SQRT(0.5)*(u[2] - u[3])
  u0 := (u[1] + u[2] + u[3])/3.0
  temp := RECIP(SQRT(ualpha*ualpha+ubeta*ubeta))
  ualfaN := ualpha*temp
  ubetaN := ubeta*temp
  -- From alfa-beta to d-q (with constant frequency)
  u_d := SQRT(2/3)*(ualpha*cos(theta) + ubeta*sin(theta))
  u_q := SQRT(2/3)*(-ualpha*sin(theta) + ubeta*cos(theta))
  uampl := SQRT(u_d*u_d+u_q*u_q)
  u_dN := ualfaN*cos(theta) + ubetaN*sin(theta)
  COMBINE ITERATE AS theta_comp
    u_qN := -ualfaN*sin(theta) + ubetaN*cos(theta)
    -- Phase-locked loop follows phase angle of the source
    CLAPLACE(wcon/u_qN) := (Gain|s0 + 0.001242|s1)/(1.0|s0 + 0.02315|s1)
    --CLAPLACE(wcon/u_qN) := (Gain|s0 + 4.0|s1)/(0.0|s0 + 1.0|s1)
    omega := omega0 + wcon
    theta := INTEGRAL(omega)
  ENDCOMBINE
  FREQ := omega/twopi
  ucomp := uampl*cos(theta)
ENDEXEC
ENDMODEL
MODEL DQ_I
INPUT In[1..3],f
OUTPUT DQ[1..2]
DATA Vnom,Pnom
VAR DQ[1..2],I[1..3],wt
CONST th0{val:0}
INIT
  DQ[1]:=1
  DQ[2]:=0
  wt:=0
  I[1..3]:=0
ENDINIT
EXEC
  I[1]:=In[1]/(sqrt(2/3)*Pnom/Vnom)    --S=sqrt(3)*V*I, en Y Ilinea=Ifase
  I[2]:=In[2]/(sqrt(2/3)*Pnom/Vnom)
  I[3]:=In[3]/(sqrt(2/3)*Pnom/Vnom)  
  wt:=2.*pi*(f)*t
--Park transforms
  DQ[1]:=(2./3.)*(I[1]*cos(wt+th0)+I[2]*cos(wt+th0-2*pi/3)+I[3]*cos(wt+th0+2*pi/
3)) 
  DQ[2]:=(-2./3.)*(I[1]*sin(wt+th0)+I[2]*sin(wt+th0-2*pi/3)+I[3]*sin(wt+th0+2*
pi/3))
ENDEXEC
ENDMODEL
MODEL DQ_V
INPUT VIn[1..3],f
OUTPUT DQ[1..2]
DATA Vnom
VAR DQ[1..2],V[1..3],wt
CONST th0{val:0}
INIT
  DQ[1]:=1
  DQ[2]:=0
  wt:=0
  V[1..3]:=0
ENDINIT
EXEC
  V[1]:=VIn[1]/(Vnom*sqrt(2./3.))
  V[2]:=VIn[2]/(Vnom*sqrt(2./3.)) 
  V[3]:=VIn[3]/(Vnom*sqrt(2./3.))  
  wt:=2.*pi*(f)*t
--Park transforms
  DQ[1]:=(2./3.)*(V[1]*cos(wt+th0)+V[2]*cos(wt+th0-2*pi/3)+V[3]*cos(wt+th0+2*pi/
3)) 
  DQ[2]:=(-2./3.)*(V[1]*sin(wt+th0)+V[2]*sin(wt+th0-2*pi/3)+V[3]*sin(wt+th0+2*
pi/3))

ENDEXEC
ENDMODEL
MODEL Outer3
COMMENT
OUTER LOOP PARA CASO CONECTADO Y POR MEDIO DE COMPONENTES DQ
ENDCOMMENT

INPUT Vdq[1..2],Pref,Qref
--Vdq medido

DATA ILIM {DFLT:1.2}

OUTPUT Idq[1..2]
--Idq para usar como referencias de inner loop
VAR Idq[1..2], Idmax2, Idmax
INIT
  Idq[1]:=Pref
  Idq[2]:=Qref
ENDINIT
EXEC
  Idq[1]:=(Vdq[1]*Pref + Vdq[2]*Qref)*recip(Vdq[1]*Vdq[1]+Vdq[2]*Vdq[2])
  Idq[2]:=(Vdq[2]*Pref - Vdq[1]*Qref)*recip(Vdq[1]*Vdq[1]+Vdq[2]*Vdq[2])
  
    comment
if Idq[1]>1.2 then
     Idq[1]:=1.2
elsif Idq[1]<-1.2 then
     Idq[1]:=-1.2
endif
    endcomment
    
if Idq[2]>ILIM then
     Idq[2]:=ILIM
elsif Idq[2]<-ILIM then
     Idq[2]:=-ILIM
endif


--function Idref=Idq[1]= fcn(Id=Idq[1],Iqmeas=Idq[2],Imax=1.2)

Idmax2 := ILIM**2 - Idq[2]**2
if Idmax2<0.01 then   --si la generacion permitida de P es menor a 0.1, mejor no genere.
    Idmax:=0
else
    Idmax:=sqrt(Idmax2)
endif

if AND(Idq[1]<=Idmax, Idq[1]>=-Idmax) then
    Idq[1]:=Idq[1]   --si esto se cumple, la anterior es la definitiva
else
    Idq[1]:=Idmax
endif

if (abs(Idq[1])<=abs(Idmax)) then
    Idq[1]:=Idq[1]
elsif Idq[1]>Idmax  then
    Idq[1]:=Idmax
elsif Idq[1]<-Idmax  then
    Idq[1]:=-Idmax
endif

ENDEXEC
ENDMODEL
MODEL INNER
DATA Rf,Lf,Pnom,Vnom,Kp,Ki
INPUT Vdq_m[1..2],Idq_m[1..2],Idq_r[1..2]
OUTPUT Vdq_r[1..2],Vdq_pu[1..2]    --Salida del inner es Vref para el VSC
VAR Vdq_r[1..2],Vdq_pu[1..2],Id,Iq,ErrorId,ErrorIq,Zbase

INIT
Zbase:=Vnom*Vnom/Pnom
Vdq_pu[1]:=1
Vdq_pu[2]:=0
Vdq_r[1]:=1
Vdq_r[2]:=0
histdef(Id):=0
histdef(Iq):=0
ErrorId:=0
ErrorIq:=0
ENDINIT

EXEC
  ErrorId:=Idq_r[1]-Idq_m[1]
  
  laplace(Id/ErrorId):= (Ki|s0+Kp|s1)/(1|s1) -- out=in*(KpS+Ki)/S
  Vdq_pu[1]:=Id+Vdq_m[1] + Idq_m[1]*Rf/Zbase - Idq_m[2]*(2*pi*60*Lf)/Zbase

  ErrorIq:=Idq_r[2]-Idq_m[2]
  laplace(Iq/ErrorIq):= (Ki|s0+Kp|s1)/(1|s1) -- out=in*1/(1+10*s)
  Vdq_pu[2]:=Iq+Vdq_m[2] + Idq_m[2]*Rf/Zbase + Idq_m[1]*(2*pi*60*Lf)/Zbase

  Vdq_r[1]:=Vdq_pu[1]*Vnom*sqrt(2/3)
  Vdq_r[2]:=Vdq_pu[2]*Vnom*sqrt(2/3)
ENDEXEC

ENDMODEL
MODEL DQ_Inv
INPUT DQ[1..2],f
OUTPUT abc[1..3]
VAR abc[1..3],wt
CONST th0 {val:0}

INIT
  abc[1..3]:=0
  wt:=0
ENDINIT

EXEC
wt:=2.*pi*(f)*t
--Park transforms
  abc[1]:=DQ[1]*cos(wt+th0)-DQ[2]*sin(wt+th0)
  abc[2]:=DQ[1]*cos(wt+th0-2*pi/3)-DQ[2]*sin(wt+th0-2*pi/3)
  abc[3]:=DQ[1]*cos(wt+th0+2*pi/3)-DQ[2]*sin(wt+th0+2*pi/3)
ENDEXEC
ENDMODEL
MODEL UI2PQ3
COMMENT-------------------------------------------------------------------------
Calculates the input active and reactive power of time domain voltage/current 
signals by a user selectable algorithm. Fixed frequency.
Output in 3-phase VA quantities. Downsampling approach ala COMTRADE component.
Algorithm=0: 8-point RADIX-2 FFT algorithm.
Algorithm=1: Recursive DFT algorithm. HKH Apr. 2021.
Algorithm=2: alpha-beta transformation by Peñaloza
----------------------------------------------------------------------ENDCOMMENT
INPUT 
  V[1..3], I[1..3]     --input signals to be transformed to phasors and power
DATA  
  FREQ {DFLT:50}       --power frequency
  SampleFreq {dflt:400}--sample frequency in this model in Hz
  ScaleV {dflt:1}      --multiply output by this number 
  ScaleI {dflt:1}      --multiply output by this number
  Algorithm {dflt:0}   --0: FFT radix2-8, 1: DFT recursive
OUTPUT 
  P, Q     --Active and reactive power output signals (rms)
VAR    
  P,Q,reV[1..3],imV[1..3],reI[1..3],imI[1..3],OMEGA,D,alpha,x1,x3,x5,x7,
  Ti,dt,DTi, xre,xim,n,delta_T[0..7],
  P3A,Q3A,P3I,Q3I,DP3,DQ3,VAT,IAT,VBT,IBT,Period
CONST SQR3 {VAL:1.732050807569}
HISTORY
  V[1..3] {DFLT:0}
  I[1..3] {DFLT:0}
  P3A {DFLT: 0.0}, Q3A {DFLT: 0.0}
  P3I {DFLT: 0.0}, Q3I {DFLT: 0.0}
DELAY CELLS (V[1..3]) : recip(FREQ*timestep)+2
DELAY CELLS (I[1..3]) : recip(FREQ*timestep)+2
DELAY CELLS (P3I, Q3I): recip(FREQ*timestep)+2

INIT 
  OMEGA:= 2*PI*FREQ
  reV[1..3] :=0
  imV[1..3] :=0
  reI[1..3] :=0
  imI[1..3] :=0
  alpha:=1/sqrt(2)
  for n:= 0 to 7 do
    delta_T[n] := n/(FREQ*8)
  endfor
  Period:=recip(FREQ)
  dt:=recip(SampleFreq)
  Ti:=0
ENDINIT
EXEC
  DTi:=T-Ti
  if DTi>=0
  then
    if Algorithm=2
    then
      VAT := (2.0*V[1] - V[2] - V[3])/SQR3
      IAT := (2.0*I[1] - I[2] - I[3])/SQR3
      VBT := V[2] - V[3]
      IBT := I[2] - I[3]
      P3I := (VAT*IAT + VBT*IBT)/2.0*ScaleV*ScaleI
      Q3I := (VBT*IAT - VAT*IBT)/2.0*ScaleV*ScaleI
      P3A := P3A + (delay(P3I, DTi, 2) - delay(P3I, Period+DTi, 2))*dt*FREQ
      Q3A := Q3A + (delay(Q3I, DTi, 2) - delay(Q3I, Period+DTi, 2))*dt*FREQ
      P := P3I*(Ti<=Period) + P3A*(Ti>Period)
      Q := Q3I*(Ti<=Period) + Q3A*(Ti>Period)
    else
      P:=0
      Q:=0
      for n:=1 to 3 do
        if Algorithm=0
        then
          x1 := delay(V[n],delta_T[0]+DTi,2) - delay(V[n],delta_T[4]+DTi,2)
          x3 := delay(V[n],delta_T[2]+DTi,2) - delay(V[n],delta_T[6]+DTi,2)
          x5 := delay(V[n],delta_T[1]+DTi,2) - delay(V[n],delta_T[5]+DTi,2)
          x7 := delay(V[n],delta_T[3]+DTi,2) - delay(V[n],delta_T[7]+DTi,2)
          xRe := x1 + (x5 - x7)*alpha
          xIm := x3 + (x5 + x7)*alpha
          ReV[n] := (xRe*cos(OMEGA*Ti)+xIm*sin(OMEGA*Ti))/4
          ImV[n] := (xIm*cos(OMEGA*Ti)-xRe*sin(OMEGA*Ti))/4
          x1 := delay(I[n],delta_T[0]+DTi,2) - delay(I[n],delta_T[4]+DTi,2)
          x3 := delay(I[n],delta_T[2]+DTi,2) - delay(I[n],delta_T[6]+DTi,2)
          x5 := delay(I[n],delta_T[1]+DTi,2) - delay(I[n],delta_T[5]+DTi,2)
          x7 := delay(I[n],delta_T[3]+DTi,2) - delay(I[n],delta_T[7]+DTi,2)
          xRe := x1 + (x5 - x7)*alpha
          xIm := x3 + (x5 + x7)*alpha
          ReI[n] := (xRe*cos(OMEGA*Ti)+xIm*sin(OMEGA*Ti))/4
          ImI[n] := (xIm*cos(OMEGA*Ti)-xRe*sin(OMEGA*Ti))/4
        else
          D:=2*FREQ*dt*(delay(V[n],DTi,2)-delay(V[n],Period+DTi,2)) 
          ReV[n]:=ReV[n]+D*cos(OMEGA*Ti)
          ImV[n]:=ImV[n]-D*sin(OMEGA*Ti)
          D:=2*FREQ*dt*(delay(I[n],DTi,2)-delay(I[n],Period+DTi,2))
          ReI[n]:=ReI[n]+D*cos(OMEGA*Ti)
          ImI[n]:=ImI[n]-D*sin(OMEGA*Ti)
        endif
        P:=P+(reV[n]*reI[n]+imV[n]*imI[n])*ScaleV*ScaleI/2
        Q:=Q+(imV[n]*reI[n]-reV[n]*imI[n])*ScaleV*ScaleI/2
      endfor
    endif
    Ti:=Ti+dt
  endif  
ENDEXEC
ENDMODEL
USE WRITEPROBEI AS M1
INPUT
  V[1]:= MM0001
  V[2]:= MM0002
  V[3]:= MM0003
  I[1]:= MM0004
  I[2]:= MM0005
  I[3]:= MM0006
DATA
  N:=       3.
  FREQ:=      60.
  TIME:=      0.4
  SampleFreq:=     480.
  IDX:=       1.
ENDUSE
USE WRITEPROBEV AS M2
INPUT
  V[1]:= MM0007
  V[2]:= MM0008
  V[3]:= MM0009
DATA
  N:=       3.
  FREQ:=      60.
  TIME:=      0.4
  SampleFreq:=     480.
  IDX:=       2.
ENDUSE
USE WRITEPROBEI AS M3
INPUT
  V[1]:= MM0010
  V[2]:= MM0011
  V[3]:= MM0012
  I[1]:= MM0013
  I[2]:= MM0014
  I[3]:= MM0015
DATA
  N:=       3.
  FREQ:=      60.
  TIME:=      0.4
  SampleFreq:=     480.
  IDX:=       3.
ENDUSE
USE WRITEPROBEV AS M4
INPUT
  V[1]:= MM0016
  V[2]:= MM0017
  V[3]:= MM0018
DATA
  N:=       3.
  FREQ:=      60.
  TIME:=      0.4
  SampleFreq:=     480.
  IDX:=       4.
ENDUSE
USE WRITEPROBEI AS M5
INPUT
  V[1]:= MM0019
  V[2]:= MM0020
  V[3]:= MM0021
  I[1]:= MM0022
  I[2]:= MM0023
  I[3]:= MM0024
DATA
  N:=       3.
  FREQ:=      60.
  TIME:=      0.4
  SampleFreq:=     480.
  IDX:=       5.
ENDUSE
USE WRITEPROBEV AS M6
INPUT
  V[1]:= MM0025
  V[2]:= MM0026
  V[3]:= MM0027
DATA
  N:=       3.
  FREQ:=      60.
  TIME:=      0.4
  SampleFreq:=     480.
  IDX:=       6.
ENDUSE
USE WRITEPROBEI AS M7
INPUT
  V[1]:= MM0028
  V[2]:= MM0029
  V[3]:= MM0030
  I[1]:= MM0031
  I[2]:= MM0032
  I[3]:= MM0033
DATA
  N:=       3.
  FREQ:=      60.
  TIME:=      0.4
  SampleFreq:=     480.
  IDX:=       7.
ENDUSE
USE WRITEPROBEV AS M8
INPUT
  V[1]:= MM0034
  V[2]:= MM0035
  V[3]:= MM0036
DATA
  N:=       3.
  FREQ:=      60.
  TIME:=      0.4
  SampleFreq:=     480.
  IDX:=       8.
ENDUSE
USE WRITEPROBEI AS M9
INPUT
  V[1]:= MM0037
  V[2]:= MM0038
  V[3]:= MM0039
  I[1]:= MM0040
  I[2]:= MM0041
  I[3]:= MM0042
DATA
  N:=       3.
  FREQ:=      60.
  TIME:=      0.4
  SampleFreq:=     480.
  IDX:=       9.
ENDUSE
USE WRITEPROBEV AS M10
INPUT
  V[1]:= MM0043
  V[2]:= MM0044
  V[3]:= MM0045
DATA
  N:=       3.
  FREQ:=      60.
  TIME:=      0.4
  SampleFreq:=     480.
  IDX:=      10.
ENDUSE
USE WRITEPROBEI AS M11
INPUT
  V[1]:= MM0046
  V[2]:= MM0047
  V[3]:= MM0048
  I[1]:= MM0049
  I[2]:= MM0050
  I[3]:= MM0051
DATA
  N:=       3.
  FREQ:=      60.
  TIME:=      0.4
  SampleFreq:=     480.
  IDX:=      11.
ENDUSE
USE WRITEPROBEV AS M12
INPUT
  V[1]:= MM0052
  V[2]:= MM0053
  V[3]:= MM0054
DATA
  N:=       3.
  FREQ:=      60.
  TIME:=      0.4
  SampleFreq:=     480.
  IDX:=      12.
ENDUSE
USE WRITEPROBEI AS M13
INPUT
  V[1]:= MM0055
  V[2]:= MM0056
  V[3]:= MM0057
  I[1]:= MM0058
  I[2]:= MM0059
  I[3]:= MM0060
DATA
  N:=       3.
  FREQ:=      60.
  TIME:=      0.4
  SampleFreq:=     480.
  IDX:=      13.
ENDUSE
USE WRITEPROBEV AS M14
INPUT
  V[1]:= MM0061
  V[2]:= MM0062
  V[3]:= MM0063
DATA
  N:=       3.
  FREQ:=      60.
  TIME:=      0.4
  SampleFreq:=     480.
  IDX:=      14.
ENDUSE
USE WRITEPROBEI AS M15
INPUT
  V[1]:= MM0064
  V[2]:= MM0065
  V[3]:= MM0066
  I[1]:= MM0067
  I[2]:= MM0068
  I[3]:= MM0069
DATA
  N:=       3.
  FREQ:=      60.
  TIME:=      0.4
  SampleFreq:=     480.
  IDX:=      15.
ENDUSE
USE WRITEPROBEV AS M16
INPUT
  V[1]:= MM0070
  V[2]:= MM0071
  V[3]:= MM0072
DATA
  N:=       3.
  FREQ:=      60.
  TIME:=      0.4
  SampleFreq:=     480.
  IDX:=      16.
ENDUSE
USE WRITEPROBEI AS M17
INPUT
  V[1]:= MM0073
  V[2]:= MM0074
  V[3]:= MM0075
  I[1]:= MM0076
  I[2]:= MM0077
  I[3]:= MM0078
DATA
  N:=       3.
  FREQ:=      60.
  TIME:=      0.4
  SampleFreq:=     480.
  IDX:=      17.
ENDUSE
USE WRITEPROBEV AS M18
INPUT
  V[1]:= MM0079
  V[2]:= MM0080
  V[3]:= MM0081
DATA
  N:=       3.
  FREQ:=      60.
  TIME:=      0.4
  SampleFreq:=     480.
  IDX:=      18.
ENDUSE
USE WRITEPROBEI AS M19
INPUT
  V[1]:= MM0082
  V[2]:= MM0083
  V[3]:= MM0084
  I[1]:= MM0085
  I[2]:= MM0086
  I[3]:= MM0087
DATA
  N:=       3.
  FREQ:=      60.
  TIME:=      0.4
  SampleFreq:=     480.
  IDX:=      19.
ENDUSE
USE WRITEPROBEV AS M20
INPUT
  V[1]:= MM0088
  V[2]:= MM0089
  V[3]:= MM0090
DATA
  N:=       3.
  FREQ:=      60.
  TIME:=      0.4
  SampleFreq:=     480.
  IDX:=      20.
ENDUSE
USE WRITEPROBEI AS M21
INPUT
  V[1]:= MM0091
  V[2]:= MM0092
  V[3]:= MM0093
  I[1]:= MM0094
  I[2]:= MM0095
  I[3]:= MM0096
DATA
  N:=       3.
  FREQ:=      60.
  TIME:=      0.4
  SampleFreq:=     480.
  IDX:=      21.
ENDUSE
USE WRITEPROBEV AS M22
INPUT
  V[1]:= MM0097
  V[2]:= MM0098
  V[3]:= MM0099
DATA
  N:=       3.
  FREQ:=      60.
  TIME:=      0.4
  SampleFreq:=     480.
  IDX:=      22.
ENDUSE
USE WRITEPROBEI AS M23
INPUT
  V[1]:= MM0100
  V[2]:= MM0101
  V[3]:= MM0102
  I[1]:= MM0103
  I[2]:= MM0104
  I[3]:= MM0105
DATA
  N:=       3.
  FREQ:=      60.
  TIME:=      0.4
  SampleFreq:=     480.
  IDX:=      23.
ENDUSE
USE WRITEPROBEV AS M24
INPUT
  V[1]:= MM0106
  V[2]:= MM0107
  V[3]:= MM0108
DATA
  N:=       3.
  FREQ:=      60.
  TIME:=      0.4
  SampleFreq:=     480.
  IDX:=      24.
ENDUSE
USE WRITEPROBEI AS M25
INPUT
  V[1]:= MM0109