BEGIN NEW DATA CASE
C ------------------------------------------------------------------------------
C Generated by ATPDraw abril, 17, 2023
C from project C:\Users\aherrada\OneDrive - Universidad del Norte\Uninorte\Detec
C ATPDraw developed by H. K. Høidalen at NTNU - NORWAY 1999-2020
C ------------------------------------------------------------------------------
POWER FREQUENCY                      60.
C  dT  >< Tmax >< Xopt >< Copt ><Epsiln>
3.255E-5      .3     60.     60.        
     500       1       1       1       1       0       0       1       0
/TACS
TACS HYBRID
C Referencia Q desde terciario
98XX0030  =      0.0
98XX0031  =       1.
27XX0026
27XX0025
98XX0033  =       1.
C Referencia Q desde terciario
98XX0040  =      0.0
98XX0041  =       1.
27XX0035
27XX0034
98XX0043  =       1.
C Referencia Q desde terciario
98XX0050  =      0.0
98XX0051  =       1.
27XX0046
27XX0045
98XX0053  =       1.
C Referencia Q desde terciario
98XX0062  =      0.0
98XX0063  =       1.
27XX0057
27XX0056
98XX0065  =       1.
/MODELS
MODELS
INPUT
  MM0001 {v(X0029A)}
  MM0002 {v(X0029B)}
  MM0003 {v(X0029C)}
  MM0004 {tacs(XX0030)}
  MM0008 {tacs(XX0031)}
  MM0009 {tacs(XX0033)}
  MM0010 {i(X0027A)}
  MM0011 {i(X0027B)}
  MM0012 {i(X0027C)}
  MM0016 {tacs(XX0026)}
  MM0017 {tacs(XX0025)}
  MM0024 {v(X0039A)}
  MM0025 {v(X0039B)}
  MM0026 {v(X0039C)}
  MM0027 {tacs(XX0040)}
  MM0031 {tacs(XX0041)}
  MM0032 {tacs(XX0043)}
  MM0033 {i(X0036A)}
  MM0034 {i(X0036B)}
  MM0035 {i(X0036C)}
  MM0039 {tacs(XX0035)}
  MM0040 {tacs(XX0034)}
  MM0047 {v(X0049A)}
  MM0048 {v(X0049B)}
  MM0049 {v(X0049C)}
  MM0050 {tacs(XX0050)}
  MM0054 {tacs(XX0051)}
  MM0055 {tacs(XX0053)}
  MM0056 {i(X0047A)}
  MM0057 {i(X0047B)}
  MM0058 {i(X0047C)}
  MM0062 {tacs(XX0046)}
  MM0063 {tacs(XX0045)}
  MM0070 {v(X0061A)}
  MM0071 {v(X0061B)}
  MM0072 {v(X0061C)}
  MM0073 {tacs(XX0062)}
  MM0077 {tacs(XX0063)}
  MM0078 {tacs(XX0065)}
  MM0079 {i(X0058A)}
  MM0080 {i(X0058B)}
  MM0081 {i(X0058C)}
  MM0085 {tacs(XX0057)}
  MM0086 {tacs(XX0056)}
  MM0093 {v(X0130A)}
  MM0094 {v(X0130B)}
  MM0095 {v(X0130C)}
  MM0096 {i(X0130A)}
  MM0097 {i(X0130B)}
  MM0098 {i(X0130C)}
  MM0099 {v(R03A)}
  MM0100 {v(R03B)}
  MM0101 {v(R03C)}
  MM0102 {v(X0132A)}
  MM0103 {v(X0132B)}
  MM0104 {v(X0132C)}
  MM0105 {i(X0132A)}
  MM0106 {i(X0132B)}
  MM0107 {i(X0132C)}
  MM0108 {v(R05A)}
  MM0109 {v(R05B)}
  MM0110 {v(R05C)}
  MM0111 {v(X0134A)}
  MM0112 {v(X0134B)}
  MM0113 {v(X0134C)}
  MM0114 {i(X0134A)}
  MM0115 {i(X0134B)}
  MM0116 {i(X0134C)}
  MM0117 {v(R19A)}
  MM0118 {v(R19B)}
  MM0119 {v(R19C)}
OUTPUT
  X0032A
  X0032B
  X0032C
  XX0025
  XX0026
  XX0087
  X0090A
  X0090B
  X0088A
  X0088B
  X0089A
  X0089B
  X0091A
  X0091B
  X0086A
  X0086B
  X0028A
  X0028B
  X0028C
  X0042A
  X0042B
  X0042C
  XX0034
  XX0035
  XX0098
  X0101A
  X0101B
  X0099A
  X0099B
  X0100A
  X0100B
  X0102A
  X0102B
  X0097A
  X0097B
  X0037A
  X0037B
  X0037C
  X0052A
  X0052B
  X0052C
  XX0045
  XX0046
  XX0109
  X0112A
  X0112B
  X0110A
  X0110B
  X0111A
  X0111B
  X0113A
  X0113B
  X0108A
  X0108B
  X0048A
  X0048B
  X0048C
  X0064A
  X0064B
  X0064C
  XX0056
  XX0057
  XX0120
  X0123A
  X0123B
  X0121A
  X0121B
  X0122A
  X0122B
  X0124A
  X0124B
  X0119A
  X0119B
  X0059A
  X0059B
  X0059C
MODEL ABC2RMS
comment------------------------------------------------------------------
Calculates the true rms value of a 3-phase signal based on integration.
SampleFreq frequency should be whole multiple of power frequency.
---------------------------------------------------------------endcomment
DATA   
  freq          -- base frequency
  xrms_ini {dflt:-1} -- initial rms value
  scale {dflt:1} --multiply output by this number 
  SampleFreq     -- sample frequency in Hz
INPUT  
  x[1..3]        -- monitored signal
OUTPUT 
  xrms[1..3]     -- rms value of monitored signal
VAR    
  xrms[1..3]     
  x2[1..3]       -- internal, x*x
  ix2[1..3]      -- internal, integral of x2
  period         -- 1/freq
  n
TIMESTEP min:recip(SampleFreq) --this restricts local timestep to avoid overflow
DELAY CELLS(ix2[1..3]): recip(freq*timestep) +2
INIT
  period       := recip(freq)
  histdef(ix2[1..3]) := 0
  integral(x2[1..3]) := 0
  IF xrms_ini <0 THEN xrms[1..3]:=0 ELSE xrms[1..3]:=xrms_ini ENDIF
ENDINIT
EXEC
  FOR n:=1 TO 3 DO
    x2[n]  := x[n]*x[n]
    ix2[n] := integral(x2[n])
    IF t>period THEN
      xrms[n] := sqrt((ix2[n] - delay(ix2[n], period))*freq)*scale
    ENDIF
  ENDFOR
ENDEXEC
ENDMODEL
MODEL PF
--Grid code requirements regarding 
DATA ILIM0 {DFLT:1.2}
INPUT Qref,VIN[1..3]        --QREF DEL CONTROL TERCIARIO, VIN RMS
      Pref, Pava            --PREF DEL CTRL TERCIARIO y P disponible en primary source
OUTPUT IQMIN, PMAX    --LA MINIMA Q PARA CUMPLIR PF Y LA MAXIMA P HABILITADA

VAR IQMIN, IDMAX, V, ILIM, PMAX --IDMAX es la maxima permitida minimo de varias

INIT
  IQMIN:=0
  IDMAX:=1
  V:=1
  ILIM:=1.2
  PMAX:=0
ENDINIT

EXEC
V:=MIN(VIN[1],VIN[2],VIN[3])

ILIM:=ILIM0

--COMO SE TRABAJA EN POR UNIDAD, IQ ES IGUAL A Qref
IF V<=0.5 THEN
    IF ABS(Qref)<ILIM*0.9  THEN   --si ref de Q menor a 0.9 Imax
        IQMIN:=0.95*ILIM        --POSITIVO PARA GENERAR REACTIVOS
    ELSE
        IQMIN:=ABS(Qref) --GARANTIZA GENERACION, PUES REFERENCIA PUEDE SER NEGATIVA
    ENDIF
    
ELSIF AND(V>0.5, V<=0.85) THEN
    IF ABS(Qref)<(-(18/7)*V + 153/70)*ILIM THEN
        IQMIN:=(-(18/7)*V + 153/70)*ILIM    
    ELSE
        IQMIN:=ABS(Qref)
    ENDIF
    
ELSIF AND(V>0.85, V<=0.9)  THEN
    IF Qref<0   THEN
        IQMIN:=0
    ELSE
        IQMIN:=Qref
    ENDIF
    
ELSE
    IQMIN:=Qref        --si la tensión es mayor a 0.9, se genera/consume lo que se pida
ENDIF


--segundo if para id, en este caso se encuentra el valor máximo de id
--que se permite
IF V<=0.85 THEN
    IDMAX:=SQRT(abs(ILIM)**2 - abs(IQMIN)**2)
    
ELSE
    IDMAX:=1
ENDIF

PMAX:=MIN(IDMAX,Pava,Pref)


ENDEXEC
ENDMODEL
MODEL PLLDQ
COMMENT =============================================================

    EEUG Course 2005:
    Estimation of frequency and phase by means of a PLL which
    operates using dq-components of measured voltages
    Reference: C. Zan; C. Fitzer; V. K. Ramachandaramurthy; 
    A. Arulampalam; M. Barnes; N. Jenkins: 
    Software Phased-Locked Loop applied to Dynamic Voltage 
    Restorer (DVR), Proc. IEEE-PES Winter Meeting 2001, 
    pp. 1033-1038.

    14-Aug-2005, Prof. M. Kizilcay
========================================================== ENDCOMMENT
INPUT  u[1..3]              -- phase voltages
OUTPUT FREQ
CONST
  twopi  {VAL:6.283185307}
DATA
  theta0 {DFLT:0.0}          -- phase betw. d-axis and alpha-axis
  f0     {DFLT:50.0}
  Gain   {DFLT:22.85}
VAR
  ualpha, ubeta, u0, ualfaN, ubetaN,
  u_dN, u_qN, u_d, u_q, uampl
  theta, wcon 
  omega, omega0,freq 
  ucomp, temp
HISTORY
  wcon {DFLT:0}
  u_qN {DFLT:0}
  omega {DFLT:2*PI*f0}
  INTEGRAL(omega) {DFLT:theta0*PI/180}
  freq {DFLT:50}
  theta {DFLT:theta0*PI/180}
INIT
  omega0 := 2*PI*f0
  theta := theta0*PI/180.0
ENDINIT
EXEC
  -- From three-phase to alfa-beta-zero
  ualpha := SQRT(2/3)*(u[1] - 0.5*(u[2]+u[3]))
  ubeta := SQRT(0.5)*(u[2] - u[3])
  u0 := (u[1] + u[2] + u[3])/3.0
  temp := RECIP(SQRT(ualpha*ualpha+ubeta*ubeta))
  ualfaN := ualpha*temp
  ubetaN := ubeta*temp
  -- From alfa-beta to d-q (with constant frequency)
  u_d := SQRT(2/3)*(ualpha*cos(theta) + ubeta*sin(theta))
  u_q := SQRT(2/3)*(-ualpha*sin(theta) + ubeta*cos(theta))
  uampl := SQRT(u_d*u_d+u_q*u_q)
  u_dN := ualfaN*cos(theta) + ubetaN*sin(theta)
  COMBINE ITERATE AS theta_comp
    u_qN := -ualfaN*sin(theta) + ubetaN*cos(theta)
    -- Phase-locked loop follows phase angle of the source
    CLAPLACE(wcon/u_qN) := (Gain|s0 + 0.001242|s1)/(1.0|s0 + 0.02315|s1)
    --CLAPLACE(wcon/u_qN) := (Gain|s0 + 4.0|s1)/(0.0|s0 + 1.0|s1)
    omega := omega0 + wcon
    theta := INTEGRAL(omega)
  ENDCOMBINE
  FREQ := omega/twopi
  ucomp := uampl*cos(theta)
ENDEXEC
ENDMODEL
MODEL DQ_I
INPUT In[1..3],f
OUTPUT DQ[1..2]
DATA Vnom,Pnom
VAR DQ[1..2],I[1..3],wt
CONST th0{val:0}
INIT
  DQ[1]:=1
  DQ[2]:=0
  wt:=0
  I[1..3]:=0
ENDINIT
EXEC
  I[1]:=In[1]/(sqrt(2/3)*Pnom/Vnom)    --S=sqrt(3)*V*I, en Y Ilinea=Ifase
  I[2]:=In[2]/(sqrt(2/3)*Pnom/Vnom)
  I[3]:=In[3]/(sqrt(2/3)*Pnom/Vnom)  
  wt:=2.*pi*(f)*t
--Park transforms
  DQ[1]:=(2./3.)*(I[1]*cos(wt+th0)+I[2]*cos(wt+th0-2*pi/3)+I[3]*cos(wt+th0+2*pi/
3)) 
  DQ[2]:=(-2./3.)*(I[1]*sin(wt+th0)+I[2]*sin(wt+th0-2*pi/3)+I[3]*sin(wt+th0+2*
pi/3))
ENDEXEC
ENDMODEL
MODEL DQ_V
INPUT VIn[1..3],f
OUTPUT DQ[1..2]
DATA Vnom
VAR DQ[1..2],V[1..3],wt
CONST th0{val:0}
INIT
  DQ[1]:=1
  DQ[2]:=0
  wt:=0
  V[1..3]:=0
ENDINIT
EXEC
  V[1]:=VIn[1]/(Vnom*sqrt(2./3.))
  V[2]:=VIn[2]/(Vnom*sqrt(2./3.)) 
  V[3]:=VIn[3]/(Vnom*sqrt(2./3.))  
  wt:=2.*pi*(f)*t
--Park transforms
  DQ[1]:=(2./3.)*(V[1]*cos(wt+th0)+V[2]*cos(wt+th0-2*pi/3)+V[3]*cos(wt+th0+2*pi/
3)) 
  DQ[2]:=(-2./3.)*(V[1]*sin(wt+th0)+V[2]*sin(wt+th0-2*pi/3)+V[3]*sin(wt+th0+2*
pi/3))

ENDEXEC
ENDMODEL
MODEL Outer3
COMMENT
OUTER LOOP PARA CASO CONECTADO Y POR MEDIO DE COMPONENTES DQ
ENDCOMMENT

INPUT Vdq[1..2],Pref,Qref
--Vdq medido

DATA ILIM {DFLT:1.2}

OUTPUT Idq[1..2]
--Idq para usar como referencias de inner loop
VAR Idq[1..2], Idmax2, Idmax
INIT
  Idq[1]:=Pref
  Idq[2]:=Qref
ENDINIT
EXEC
  Idq[1]:=(Vdq[1]*Pref + Vdq[2]*Qref)*recip(Vdq[1]*Vdq[1]+Vdq[2]*Vdq[2])
  Idq[2]:=(Vdq[2]*Pref - Vdq[1]*Qref)*recip(Vdq[1]*Vdq[1]+Vdq[2]*Vdq[2])
  
    comment
if Idq[1]>1.2 then
     Idq[1]:=1.2
elsif Idq[1]<-1.2 then
     Idq[1]:=-1.2
endif
    endcomment
    
if Idq[2]>ILIM then
     Idq[2]:=ILIM
elsif Idq[2]<-ILIM then
     Idq[2]:=-ILIM
endif


--function Idref=Idq[1]= fcn(Id=Idq[1],Iqmeas=Idq[2],Imax=1.2)

Idmax2 := ILIM**2 - Idq[2]**2
if Idmax2<0.01 then   --si la generacion permitida de P es menor a 0.1, mejor no genere.
    Idmax:=0
else
    Idmax:=sqrt(Idmax2)
endif

if AND(Idq[1]<=Idmax, Idq[1]>=-Idmax) then
    Idq[1]:=Idq[1]   --si esto se cumple, la anterior es la definitiva
else
    Idq[1]:=Idmax
endif

if (abs(Idq[1])<=abs(Idmax)) then
    Idq[1]:=Idq[1]
elsif Idq[1]>Idmax  then
    Idq[1]:=Idmax
elsif Idq[1]<-Idmax  then
    Idq[1]:=-Idmax
endif

ENDEXEC
ENDMODEL
MODEL INNER
DATA Rf,Lf,Pnom,Vnom,Kp,Ki
INPUT Vdq_m[1..2],Idq_m[1..2],Idq_r[1..2]
OUTPUT Vdq_r[1..2],Vdq_pu[1..2]    --Salida del inner es Vref para el VSC
VAR Vdq_r[1..2],Vdq_pu[1..2],Id,Iq,ErrorId,ErrorIq,Zbase

INIT
Zbase:=Vnom*Vnom/Pnom
Vdq_pu[1]:=1
Vdq_pu[2]:=0
Vdq_r[1]:=1
Vdq_r[2]:=0
histdef(Id):=0
histdef(Iq):=0
ErrorId:=0
ErrorIq:=0
ENDINIT

EXEC
  ErrorId:=Idq_r[1]-Idq_m[1]
  
  laplace(Id/ErrorId):= (Ki|s0+Kp|s1)/(1|s1) -- out=in*(KpS+Ki)/S
  Vdq_pu[1]:=Id+Vdq_m[1] + Idq_m[1]*Rf/Zbase - Idq_m[2]*(2*pi*60*Lf)/Zbase

  ErrorIq:=Idq_r[2]-Idq_m[2]
  laplace(Iq/ErrorIq):= (Ki|s0+Kp|s1)/(1|s1) -- out=in*1/(1+10*s)
  Vdq_pu[2]:=Iq+Vdq_m[2] + Idq_m[2]*Rf/Zbase + Idq_m[1]*(2*pi*60*Lf)/Zbase

  Vdq_r[1]:=Vdq_pu[1]*Vnom*sqrt(2/3)
  Vdq_r[2]:=Vdq_pu[2]*Vnom*sqrt(2/3)
ENDEXEC

ENDMODEL
MODEL DQ_Inv
INPUT DQ[1..2],f
OUTPUT abc[1..3]
VAR abc[1..3],wt
CONST th0 {val:0}

INIT
  abc[1..3]:=0
  wt:=0
ENDINIT

EXEC
wt:=2.*pi*(f)*t
--Park transforms
  abc[1]:=DQ[1]*cos(wt+th0)-DQ[2]*sin(wt+th0)
  abc[2]:=DQ[1]*cos(wt+th0-2*pi/3)-DQ[2]*sin(wt+th0-2*pi/3)
  abc[3]:=DQ[1]*cos(wt+th0+2*pi/3)-DQ[2]*sin(wt+th0+2*pi/3)
ENDEXEC
ENDMODEL
MODEL WRITEPROBEI
comment--------------------------------------------------------------
Calculates the phasor of input V and I with FFT Radix2-8 algorithm.
The phasor is written to the LIS-file at the specified TIME.
SampleFreq should be a whole multiple of the 8* power frequency.
-----------------------------------------------------------endcomment
DATA  
  N {DFLT:3}           --number of phases
  FREQ {DFLT:50}       --power frequency
  TIME {DFLT:0}        --sample time
  SampleFreq {dflt:400}--sample freq
  IDX
INPUT 
  V[1..N], I[1..N]     --input signal to be transformed
VAR    
  P[1..N], Q[1..N], 
Imagn[1..N],Iangl[1..N],reV[1..N],imV[1..N],reI[1..N],imI[1..N],OMEGA,
  k,alpha,x1,x3,x5,x7,xre,xim,delta_T[0..7],written

HISTORY
  V[1..N] {DFLT:0}
  I[1..N] {DFLT:0}
timestep min: recip(SampleFreq)
DELAY CELLS (V[1..N]) : recip(FREQ*timestep)+2
DELAY CELLS (I[1..N]) : recip(FREQ*timestep)+2

INIT 
  OMEGA:= 2*PI*FREQ
  written:=0
  reV[1..N] :=0
  imV[1..N] :=0
  reI[1..N] :=0
  imI[1..N] :=0
  alpha:=1/sqrt(2)
  for k:= 0 to 7 do
    delta_T[k] := k*recip(FREQ*8)
  endfor
ENDINIT
EXEC
  if written=0 then
    if (FREQ>0) and (t>=TIME-recip(FREQ)) then
      for k:=1 to N do
        x1 := delay(V[k],delta_T[0],1) - delay(V[k],delta_T[4],1)
        x3 := delay(V[k],delta_T[2],1) - delay(V[k],delta_T[6],1)
        x5 := delay(V[k],delta_T[1],1) - delay(V[k],delta_T[5],1)
        x7 := delay(V[k],delta_T[3],1) - delay(V[k],delta_T[7],1)
        xRe := x1 + (x5 - x7)*alpha
        xIm := x3 + (x5 + x7)*alpha
        ReV[k] := (xRe*cos(OMEGA*T)+xIm*sin(OMEGA*T))/4
        ImV[k] := (xIm*cos(OMEGA*T)-xRe*sin(OMEGA*T))/4
        x1 := delay(I[k],delta_T[0],1) - delay(I[k],delta_T[4],1)
        x3 := delay(I[k],delta_T[2],1) - delay(I[k],delta_T[6],1)
        x5 := delay(I[k],delta_T[1],1) - delay(I[k],delta_T[5],1)
        x7 := delay(I[k],delta_T[3],1) - delay(I[k],delta_T[7],1)
        xRe := x1 + (x5 - x7)*alpha
        xIm := x3 + (x5 + x7)*alpha
        ReI[k] := (xRe*cos(OMEGA*T)+xIm*sin(OMEGA*T))/4
        ImI[k] := (xIm*cos(OMEGA*T)-xRe*sin(OMEGA*T))/4
      endfor
    endif 
    if t>=TIME then
      if FREQ>0 then
        for k:=1 to N do
          P[k]:=(reV[k]*reI[k]+imV[k]*imI[k])/2
          Q[k]:=(imV[k]*reI[k]-reV[k]*imI[k])/2
          Imagn[k]:=sqrt(reI[k]**2+imI[k]**2)
          if (imI[k]=0) and (reI[k]=0) then
            Iangl[k]:=0
          else
            Iangl[k]:=atan2(imI[k],reI[k])*180/PI
          endif
        endfor 
      else
        for k:=1 to N do
          P[k]:=I[k]*V[k]/2
          Q[k]:=0
          Imagn[k]:=I[k]
          Iangl[k]:=0
        endfor
      endif
      write('BEGIN WRITE @WRITEPROBEI',trunc(Idx))    --Do not modify this line, replaced by ATPDraw
      for k:=1 to N do
        write(Imagn[k],' ', Iangl[k],' ', P[k],' ' ,Q[k],' ' , TIME)            
            --Add multiple columns or multiple lines 
      endfor
      write('END WRITE @WRITEPROBEI',trunc(Idx))      --Do not modify this line, replaced by ATPDraw
      written:=1
    endif
  endif
ENDEXEC
ENDMODEL
MODEL WRITEPROBEV
comment---------------------------------------------------------
Calculates the phasor of input V with FFT Radix2-8 algorithm.
The phasor is written to the LIS-file at the specified TIME.
SampleFreq should be a whole multiple of the 8* power frequency.
-------------------------------------------------------endcomment
DATA  
  N {DFLT:3}           --number of phases
  FREQ {DFLT:50}       --power frequency
  TIME {DFLT:0}        --sample time
  SampleFreq {dflt:400}--sample freq
  IDX
INPUT 
  V[1..N]     --input signal to be transformed
VAR    
  Vmagn[1..N],Vangl[1..N],reV[1..N],imV[1..N],OMEGA,
  k,alpha,x1,x3,x5,x7,xre,xim,delta_T[0..7],written

HISTORY
  V[1..N] {DFLT:0}
timestep min: recip(SampleFreq)
DELAY CELLS (V[1..N]) : recip(FREQ*timestep)+2

INIT 
  OMEGA:= 2*PI*FREQ
  written:=0
  reV[1..N] :=0
  imV[1..N] :=0
  alpha:=1/sqrt(2)
  for k:= 0 to 7 do
    delta_T[k] := k*recip(FREQ*8)
  endfor
ENDINIT
EXEC
  if written=0 then
    if (FREQ>0) and (t>=TIME-recip(FREQ)) then
      for k:=1 to N do
        x1 := delay(V[k],delta_T[0],1) - delay(V[k],delta_T[4],1)
        x3 := delay(V[k],delta_T[2],1) - delay(V[k],delta_T[6],1)
        x5 := delay(V[k],delta_T[1],1) - delay(V[k],delta_T[5],1)
        x7 := delay(V[k],delta_T[3],1) - delay(V[k],delta_T[7],1)
        xRe := x1 + (x5 - x7)*alpha
        xIm := x3 + (x5 + x7)*alpha
        ReV[k] := (xRe*cos(OMEGA*T)+xIm*sin(OMEGA*T))/4
        ImV[k] := (xIm*cos(OMEGA*T)-xRe*sin(OMEGA*T))/4
      endfor
    endif 
    if t>=TIME then
      if FREQ>0 then
        for k:=1 to N do
          Vmagn[k]:=sqrt(reV[k]**2+imV[k]**2)
          if (imV[k]=0) and (reV[k]=0) then
            Vangl[k]:=0
          else
            Vangl[k]:=atan2(imV[k],reV[k])*180/PI
          endif
        endfor 
      else
        for k:=1 to N do
          Vmagn[k]:=V[k]
          Vangl[k]:=0
        endfor
      endif
      write('BEGIN WRITE @WRITEPROBEV',trunc(Idx))    --Do not modify this line, replaced by ATPDraw
      for k:=1 to N do
        write(Vmagn[k],' ', Vangl[k],' ', TIME)                        --Add multiple columns or multiple lines 
      endfor
      write('END WRITE @WRITEPROBEV',trunc(Idx))      --Do not modify this line, replaced by ATPDraw
      written:=1
    endif
  endif
ENDEXEC
ENDMODEL
USE ABC2RMS AS ABC2RMS
INPUT
  x[1]:= MM0001
  x[2]:= MM0002
  x[3]:= MM0003
DATA
  freq:=      60.
  xrms_ini:=       1.
  scale:= 0.004028
  SampleFreq:=   15360.
OUTPUT
  X0032A:=xrms[1]
  X0032B:=xrms[2]
  X0032C:=xrms[3]
ENDUSE
USE PF AS M2
INPUT
  Qref:= MM0004
  VIN[1]:= X0032A
  VIN[2]:= X0032B
  VIN[3]:= X0032C
  Pref:= MM0008
  Pava:= MM0009
DATA
  ILIM0:=      1.2
OUTPUT
  XX0025:=IQMIN
  XX0026:=PMAX
ENDUSE
USE PLLDQ AS PLLDQ
INPUT
  u[1]:= MM0001
  u[2]:= MM0002
  u[3]:= MM0003
DATA
  theta0:=        0.0
  f0:=        60.
  Gain:=      22.85
OUTPUT
  XX0087:=FREQ
ENDUSE
C In 1 (up). Three phase; In 2, theta.  Out 1 y 2 son D y Q. Zero no es consider
USE DQ_I AS DQ
INPUT
  In[1]:= MM0010
  In[2]:= MM0011
  In[3]:= MM0012
  f:= XX0087
DATA
  Vnom:=     400.
  Pnom:=     2.E5
OUTPUT
  X0090A:=DQ[1]
  X0090B:=DQ[2]
ENDUSE
C In 1 (up). Three phase; In 2, theta.  Out 1 y 2 son D y Q. Zero no es consider
USE DQ_V AS DQ
INPUT
  VIn[1]:= MM0001
  VIn[2]:= MM0002
  VIn[3]:= MM0003
  f:= XX0087
DATA
  Vnom:=     400.
OUTPUT
  X0088A:=DQ[1]
  X0088B:=DQ[2]
ENDUSE
C Outer loop
USE OUTER3 AS M6
INPUT
  Vdq[1]:= X0088A
  Vdq[2]:= X0088B
  Pref:= MM0016
  Qref:= MM0017
DATA
  ILIM:=      1.2
OUTPUT
  X0089A:=Idq[1]
  X0089B:=Idq[2]
ENDUSE
USE INNER AS M7
INPUT
  Vdq_m[1]:= X0088A
  Vdq_m[2]:= X0088B
  Idq_m[1]:= X0090A
  Idq_m[2]:= X0090B
  Idq_r[1]:= X0089A
  Idq_r[2]:= X0089B
DATA
  Rf:=     0.28
  Lf:=    5.E-4
  Pnom:=     2.E5
  Vnom:=     400.
  Kp:=     8.78
  Ki:=    22.18
OUTPUT
  X0091A:=Vdq_r[1]
  X0091B:=Vdq_r[2]
  X0086A:=Vdq_pu[1]
  X0086B:=Vdq_pu[2]
ENDUSE
C In 1 (up). Three phase; In 2, theta.  Out 1 y 2 son D y Q. Zero no es consider
USE DQ_INV AS DQ_Inv
INPUT
  DQ[1]:= X0091A
  DQ[2]:= X0091B
  f:= XX0087
OUTPUT
  X0028A:=abc[1]
  X0028B:=abc[2]
  X0028C:=abc[3]
ENDUSE
USE ABC2RMS AS ABC2RMS
INPUT
  x[1]:= MM0024
  x[2]:= MM0025
  x[3]:= MM0026
DATA
  freq:=      60.
  xrms_ini:=       1.
  scale:= 0.004028
  SampleFreq:=   15360.
OUTPUT
  X0042A:=xrms[1]
  X0042B:=xrms[2]
  X0042C:=xrms[3]
ENDUSE
USE PF AS M10
INPUT
  Qref:= MM0027
  VIN[1]:= X0042A
  VIN[2]:= X0042B
  VIN[3]:= X0042C
  Pref:= MM0031
  Pava:= MM0032
DATA
  ILIM0:=      1.2
OUTPUT
  XX0034:=IQMIN
  XX0035:=PMAX
ENDUSE
USE PLLDQ AS PLLDQ
INPUT
  u[1]:= MM0024
  u[2]:= MM0025
  u[3]:= MM0026
DATA
  theta0:=        0.0
  f0:=        60.
  Gain:=      22.85
OUTPUT
  XX0098:=FREQ
ENDUSE
C In 1 (up). Three phase; In 2, theta.  Out 1 y 2 son D y Q. Zero no es consider
USE DQ_I AS DQ
INPUT
  In[1]:= MM0033
  In[2]:= MM0034
  In[3]:= MM0035
  f:= XX0098
DATA
  Vnom:=     400.
  Pnom:=     1.E5
OUTPUT
  X0101A:=DQ[1]
  X0101B:=DQ[2]
ENDUSE
C In 1 (up). Three phase; In 2, theta.  Out 1 y 2 son D y Q. Zero no es consider
USE DQ_V AS DQ
INPUT
  VIn[1]:= MM0024
  VIn[2]:= MM0025
  VIn[3]:= MM0026
  f:= XX0098
DATA
  Vnom:=     400.
OUTPUT
  X0099A:=DQ[1]
  X0099B:=DQ[2]
ENDUSE
C Outer loop
USE OUTER3 AS M14
INPUT
  Vdq[1]:= X0099A
  Vdq[2]:= X0099B
  Pref:= MM0039
  Qref:= MM0040
DATA
  ILIM:=      1.2
OUTPUT
  X0100A:=Idq[1]
  X0100B:=Idq[2]
ENDUSE
USE INNER AS M15
INPUT
  Vdq_m[1]:= X0099A
  Vdq_m[2]:= X0099B
  Idq_m[1]:= X0101A
  Idq_m[2]:= X0101B
  Idq_r[1]:= X0100A
  Idq_r[2]:= X0100B
DATA
  Rf:=     0.28
  Lf:=    5.E-4
  Pnom:=     1.E5
  Vnom:=     400.
  Kp:=     0.15
  Ki:=       6.
OUTPUT
  X0102A:=Vdq_r[1]
  X0102B:=Vdq_r[2]
  X0097A:=Vdq_pu[1]
  X0097B:=Vdq_pu[2]
ENDUSE
C In 1 (up). Three phase; In 2, theta.  Out 1 y 2 son D y Q. Zero no es consider
USE DQ_INV AS DQ_Inv
INPUT
  DQ[1]:= X0102A
  DQ[2]:= X0102B
  f:= XX0098
OUTPUT
  X0037A:=abc[1]
  X0037B:=abc[2]
  X0037C:=abc[3]
ENDUSE
USE ABC2RMS AS ABC2RMS
INPUT
  x[1]:= MM0047
  x[2]:= MM0048
  x[3]:= MM0049
DATA
  freq:=      60.
  xrms_ini:=       1.
  scale:= 0.004028
  SampleFreq:=   15360.
OUTPUT
  X0052A:=xrms[1]
  X0052B:=xrms[2]
  X0052C:=xrms[3]
ENDUSE
USE PF AS M18
INPUT
  Qref:= MM0050
  VIN[1]:= X0052A
  VIN[2]:= X0052B
  VIN[3]:= X0052C
  Pref:= MM0054
  Pava:= MM0055
DATA
  ILIM0:=      1.2
OUTPUT
  XX0045:=IQMIN
  XX0046:=PMAX
ENDUSE
USE PLLDQ AS PLLDQ
INPUT
  u[1]:= MM0047
  u[2]:= MM0048
  u[3]:= MM0049
DATA
  theta0:=        0.0
  f0:=        60.
  Gain:=      22.85
OUTPUT
  XX0109:=FREQ
ENDUSE
C In 1 (up). Three phase; In 2, theta.  Out 1 y 2 son D y Q. Zero no es consider
USE DQ_I AS DQ
INPUT
  In[1]:= MM0056
  In[2]:= MM0057
  In[3]:= MM0058
  f:= XX0109
DATA
  Vnom:=     400.
  Pnom:=     1.E5
OUTPUT
  X0112A:=DQ[1]
  X0112B:=DQ[2]
ENDUSE
C In 1 (up). Three phase; In 2, theta.  Out 1 y 2 son D y Q. Zero no es consider
USE DQ_V AS DQ
INPUT
  VIn[1]:= MM0047
  VIn[2]:= MM0048
  VIn[3]:= MM0049
  f:= XX0109
DATA
  Vnom:=     400.
OUTPUT
  X0110A:=DQ[1]
  X0110B:=DQ[2]
ENDUSE
C Outer loop
USE OUTER3 AS M22
INPUT
  Vdq[1]:= X0110A
  Vdq[2]:= X0110B
  Pref:= MM0062
  Qref:= MM0063
DATA
  ILIM:=      1.2
OUTPUT
  X0111A:=Idq[1]
  X0111B:=Idq[2]
ENDUSE
USE INNER AS M23
INPUT
  Vdq_m[1]:= X0110A
  Vdq_m[2]:= X0110B
  Idq_m[1]:= X0112A
  Idq_m[2]:= X0112B
  Idq_r[1]:= X0111A
  Idq_r[2]:= X0111B
DATA
  Rf:=     0.28
  Lf:=    5.E-4
  Pnom:=     1.E5
  Vnom:=     400.
  Kp:=     0.15
  Ki:=       6.
OUTPUT
  X0113A:=Vdq_r[1]
  X0113B:=Vdq_r[2]
  X0108A:=Vdq_pu[1]
  X0108B:=Vdq_pu[2]
ENDUSE
C In 1 (up). Three phase; In 2, theta.  Out 1 y 2 son D y Q. Zero no es consider
USE DQ_INV AS DQ_Inv
INPUT
  DQ[1]:= X0113A
  DQ[2]:= X0113B
  f:= XX0109
OUTPUT
  X0048A:=abc[1]
  X0048B:=abc[2]
  X0048C:=abc[3]
ENDUSE
USE ABC2RMS AS ABC2RMS
INPUT
  x[1]:= MM0070
  x[2]:= MM0071
  x[3]:= MM0072
DATA
  freq:=      60.
  xrms_ini:=       1.
  scale:= 0.004028
  SampleFreq:=   15360.
OUTPUT
  X0064A:=xrms[1]
  X0064B:=xrms[2]
  X0064C:=xrms[3]
ENDUSE
USE PF AS M26
INPUT
  Qref:= MM0073
  VIN[1]:= X0064A
  VIN[2]:= X0064B
  VIN[3]:= X0064C
  Pref:= MM0077
  Pava:= MM0078
DATA
  ILIM0:=      1.2
OUTPUT
  XX0056:=IQMIN
  XX0057:=PMAX
ENDUSE
USE PLLDQ AS PLLDQ
INPUT
  u[1]:= MM0070
  u[2]:= MM0071
  u[3]:= MM0072
DATA
  theta0:=        0.0
  f0:=        60.
  Gain:=      22.85
OUTPUT
  XX0120:=FREQ
ENDUSE
C In 1 (up). Three phase; In 2, theta.  Out 1 y 2 son D y Q. Zero no es consider
USE DQ_I AS DQ
INPUT
  In[1]:= MM0079
  In[2]:= MM0080
  In[3]:= MM0081
  f:= XX0120
DATA
  Vnom:=     400.
  Pnom:=     5.E3
OUTPUT
  X0123A:=DQ[1]
  X0123B:=DQ[2]
ENDUSE
C In 1 (up). Three phase; In 2, theta.  Out 1 y 2 son D y Q. Zero no es consider
USE DQ_V AS DQ
INPUT
  VIn[1]:= MM0070
  VIn[2]:= MM0071
  VIn[3]:= MM0072
  f:= XX0120
DATA
  Vnom:=     400.
OUTPUT
  X0121A:=DQ[1]
  X0121B:=DQ[2]
ENDUSE
C Outer loop
USE OUTER3 AS M30
INPUT
  Vdq[1]:= X0121A
  Vdq[2]:= X0121B
  Pref:= MM0085
  Qref:= MM0086
DATA
  ILIM:=      1.2
OUTPUT
  X0122A:=Idq[1]
  X0122B:=Idq[2]
ENDUSE
USE INNER AS M31
INPUT
  Vdq_m[1]:= X0121A
  Vdq_m[2]:= X0121B
  Idq_m[1]:= X0123A
  Idq_m[2]:= X0123B
  Idq_r[1]:= X0122A
  Idq_r[2]:= X0122B
DATA
  Rf:=     0.28
  Lf:=    5.E-4
  Pnom:=     5.E3
  Vnom:=     400.
  Kp:=     0.15
  Ki:=       6.
OUTPUT
  X0124A:=Vdq_r[1]
  X0124B:=Vdq_r[2]
  X0119A:=Vdq_pu[1]
  X0119B:=Vdq_pu[2]
ENDUSE
C In 1 (up). Three phase; In 2, theta.  Out 1 y 2 son D y Q. Zero no es consider
USE DQ_INV AS DQ_Inv
INPUT
  DQ[1]:= X0124A
  DQ[2]:= X0124B
  f:= XX0120
OUTPUT
  X0059A:=abc[1]
  X0059B:=abc[2]
  X0059C:=abc[3]
ENDUSE
USE WRITEPROBEI AS M33
INPUT
  V[1]:= MM0093
  V[2]:= MM0094
  V[3]:= MM0095
  I[1]:= MM0096
  I[2]:= MM0097
  I[3]:= MM0098
DATA
  N:=       3.
  FREQ:=      60.
  TIME:=      0.4
  SampleFreq:=     480.
  IDX:=      33.
ENDUSE
USE WRITEPROBEV AS M34
INPUT
  V[1]:= MM0099
  V[2]:= MM0100
  V[3]:= MM0101
DATA
  N:=       3.
  FREQ:=      60.
  TIME:=      0.4
  SampleFreq:=     480.
  IDX:=      34.
ENDUSE
USE WRITEPROBEI AS M35
INPUT
  V[1]:= MM0102
  V[2]:= MM0103
  V[3]:= MM0104
  I[1]:= MM0105
  I[2]:= MM0106
  I[3]:= MM0107
DATA
  N:=       3.
  FREQ:=      60.
  TIME:=      0.4
  SampleFreq:=     480.
  IDX:=      35.
ENDUSE
USE WRITEPROBEV AS M36
INPUT
  V[1]:= MM0108
  V[2]:= MM0109
  V[3]:= MM0110
DATA
  N:=       3.
  FREQ:=      60.
  TIME:=      0.4
  SampleFreq:=     480.
  IDX:=      36.
ENDUSE
USE WRITEPROBEI AS M37
INPUT
  V[1]:= MM0111
  V[2]:= MM0112
  V[3]:= MM0113
  I[1]:= MM0114
  I[2]:= MM0115
  I[3]:= MM0116
DATA
  N:=       3.
  FREQ:=      60.
  TIME:=      0.4
  SampleFreq:=     480.
  IDX:=      37.
ENDUSE
USE WRITEPROBEV AS M38
INPUT
  V[1]:= MM0117
  V[2]:= MM0118
  V[3]:= MM0119
DATA
  N:=       3.
  FREQ:=      60.
  TIME:=      0.4
  SampleFreq:=     480.
  IDX:=      38.
ENDUSE
RECORD
  M2.IQMIN AS IQMIN
  M2.IDMAX AS IDMAX
  M10.IQMIN AS IQMIN
  M10.IDMAX AS IDMAX
  M18.IQMIN AS IQMIN
  M18.IDMAX AS IDMAX
  M26.IQMIN AS IQMIN
  M26.IDMAX AS IDMAX
ENDMODELS
C        1         2         3         4         5         6         7         8
C 345678901234567890123456789012345678901234567890123456789012345678901234567890
/BRANCH
C < n1 >< n2 ><ref1><ref2>< R  >< L  >< C  >
C < n1 >< n2 ><ref1><ref2>< R  >< A  >< B  ><Leng><><>0
$VINTAGE,1
C Configuracion_300 Long_786.384
1 N100A N802A                  .6532098696     .6519909744      2.60686296
2 N100B N802B                  .1026624312    .28238263056   -.74825223984
                              .64685588688    .66303180576    2.4910285968
3 N100C N802C                  .1040779224    .24505298208   -.48585162672
                              .10095597792    .22433176368     -.303544224
                               .6495925032     .6582427272    2.3884841232
C Load 860 3fy
  X0073A                      6300.9146341    5040.7317073                     0
  X0073B                      6300.9146341    5040.7317073                     0
  X0073C                      6300.9146341    5040.7317073                     0
C Configuracion_300 Long_527.304
1 N802A N806A                  .4380050676     .4371877464      1.74801276
2 N802B N806B                  .0688395372    .18934959336   -.50173502904
                              .43374445128    .44459109456    1.6703408808
3 N802C N806C                  .0697886844    .16431847248   -.32578423032
                              .06769528752    .15042401208     -.203539344
                               .4355794692     .4413798132    1.6015804392
C Configuracion_300 Long_9823.704
1 N806A N108A                 8.1600597276    8.1448329864     32.56557876
2 N806B N108B                 1.2824845572    3.5275938694    -9.347352593
                              8.0806841993    8.2827577906    31.118547161
3 N806C N108C                 1.3001672244    3.0612626405   -6.0693790423
                              1.2611671195    2.8024080401    -3.791949744
                              8.1148706892    8.2229314332    29.837536159
C Configuracion_303 Long_1769.0592
1 X0001BXX0018                3.0772784784    1.6329300946    4.6444880237
C Configuracion_300 Long_11430
1 N208A N112A                    9.4943295        9.476613        37.89045
2 N208B N112B                    1.4921865       4.1043987     -10.8757593
                                 9.4019751       9.6370902       36.206811
3 N208C N112C                    1.5127605       3.5618166      -7.0617969
                                 1.4673834       3.2606361        -4.41198
                                 9.4417515       9.5674815       34.716339
C Configuracion_300 Long_9061.704
1 N312A N814A                 7.5271044276    7.5130587864     30.03954876
2 N312B N814B                 1.1830054572    3.2539672894    -8.622301973
                              7.4538858593    7.6402851106    28.704759761
3 N312C N814C                 1.1993165244    2.8238082005   -5.5985925823
                              1.1633415595    2.5850323001    -3.497817744
                              7.4854205892    7.5850993332    27.523113559
C Configuracion_301 Long_3.048
1 X0007AN850A                  .0036551616    .00267330936     .0096984312
2 X0007BN850B                 .00044071032    .00122008392   -.00272046192
                               .0036283392    .00270473424     .0092906088
3 X0007CN850C                 .00044677584    .00107783376   -.00178067208
                              .00043333416    .00099206304   -.00112708944
                               .0036399216    .00269110968       .00893064
C Configuracion_301 Long_94.488
1 N850A N116A                  .1133100096    .08287259016     .3006513672
2 N850B N116B                 .01366201992    .03782260152   -.08433431952
                               .1124785152    .08384676144     .2880088728
3 N850C N116C                 .01385005104    .03341284656   -.05520083448
                              .01343335896    .03075395424   -.03493977264
                               .1128375696    .08342440008       .27684984
C Configuracion_302 Long_521.208
1 X0002AXX0014                  .906641316     .4811010444    1.3683794832
C Configuracion_301 Long_3112.008
1 N216A N124A                 3.7319199936    2.7294488566    9.9020982552
2 N216B N124B                 .44996523672    1.2457056823   -2.7775916203
                              3.7045343232     2.761533659    9.4857115848
3 N216C N124C                 .45615813264     1.100468269   -1.8180661937
                              .44243417736    1.0128963638   -1.1507583182
                              3.7163599536    2.7476229833      9.11818344
C Configuracion_302 Long_14676.12